366358
  -OEChem-12221513053D

 45 50  0     1  0  0  0  0  0999 V2000
   -5.6545    0.3891   -0.4303 O   0  0  0  0  0  0  0  0  0  0  0  0
   -3.4897   -2.3968   -0.8377 O   0  0  0  0  0  0  0  0  0  0  0  0
   -2.7222    3.3826    0.1635 O   0  0  0  0  0  0  0  0  0  0  0  0
   -5.9994   -1.6903   -1.2019 O   0  0  0  0  0  0  0  0  0  0  0  0
    7.0547   -0.0704   -0.0165 O   0  0  0  0  0  0  0  0  0  0  0  0
    6.1112   -2.2848   -0.1041 O   0  0  0  0  0  0  0  0  0  0  0  0
   -1.0250    1.8154    0.0668 N   0  0  0  0  0  0  0  0  0  0  0  0
    1.6021   -0.6408   -0.0375 N   0  0  0  0  0  0  0  0  0  0  0  0
   -3.9301   -1.3132   -0.0158 C   0  0  2  0  0  0  0  0  0  0  0  0
   -2.9257   -0.1940   -0.0115 C   0  0  0  0  0  0  0  0  0  0  0  0
   -0.6216    0.4915    0.0106 C   0  0  0  0  0  0  0  0  0  0  0  0
   -3.3436    1.0829    0.0567 C   0  0  0  0  0  0  0  0  0  0  0  0
    0.1397    2.7236    0.1008 C   0  0  0  0  0  0  0  0  0  0  0  0
    1.2868    1.7682    0.0597 C   0  0  0  0  0  0  0  0  0  0  0  0
    0.8342    0.4570    0.0074 C   0  0  0  0  0  0  0  0  0  0  0  0
   -1.5053   -0.5091   -0.0241 C   0  0  0  0  0  0  0  0  0  0  0  0
   -2.3490    2.2136    0.0998 C   0  0  0  0  0  0  0  0  0  0  0  0
   -4.1688   -1.8677    1.3889 C   0  0  0  0  0  0  0  0  0  0  0  0
   -4.7951    1.4178    0.1079 C   0  0  0  0  0  0  0  0  0  0  0  0
   -5.2688   -0.8952   -0.6134 C   0  0  0  0  0  0  0  0  0  0  0  0
    2.6427    1.9962    0.0674 C   0  0  0  0  0  0  0  0  0  0  0  0
    3.5020    0.8875    0.0223 C   0  0  0  0  0  0  0  0  0  0  0  0
    2.9328   -0.4294   -0.0299 C   0  0  0  0  0  0  0  0  0  0  0  0
   -5.1578   -3.0161    1.3676 C   0  0  0  0  0  0  0  0  0  0  0  0
    4.8959    1.0657    0.0286 C   0  0  0  0  0  0  0  0  0  0  0  0
    3.7909   -1.5247   -0.0739 C   0  0  0  0  0  0  0  0  0  0  0  0
    5.6945   -0.0552   -0.0159 C   0  0  0  0  0  0  0  0  0  0  0  0
    5.1564   -1.3153   -0.0659 C   0  0  0  0  0  0  0  0  0  0  0  0
    7.3128   -1.4881   -0.0696 C   0  0  0  0  0  0  0  0  0  0  0  0
    0.1068    3.3074    1.0255 H   0  0  0  0  0  0  0  0  0  0  0  0
    0.1024    3.3794   -0.7740 H   0  0  0  0  0  0  0  0  0  0  0  0
   -1.1860   -1.5446   -0.0545 H   0  0  0  0  0  0  0  0  0  0  0  0
   -4.5363   -1.0881    2.0675 H   0  0  0  0  0  0  0  0  0  0  0  0
   -3.2265   -2.2455    1.8064 H   0  0  0  0  0  0  0  0  0  0  0  0
   -5.1117    1.6185    1.1368 H   0  0  0  0  0  0  0  0  0  0  0  0
   -4.9997    2.3140   -0.4870 H   0  0  0  0  0  0  0  0  0  0  0  0
    3.0280    3.0106    0.1080 H   0  0  0  0  0  0  0  0  0  0  0  0
   -6.1745   -2.6838    1.1383 H   0  0  0  0  0  0  0  0  0  0  0  0
   -4.8754   -3.8058    0.6650 H   0  0  0  0  0  0  0  0  0  0  0  0
   -5.2006   -3.4741    2.3625 H   0  0  0  0  0  0  0  0  0  0  0  0
   -3.2748   -2.0423   -1.7179 H   0  0  0  0  0  0  0  0  0  0  0  0
    5.3405    2.0557    0.0680 H   0  0  0  0  0  0  0  0  0  0  0  0
    3.3961   -2.5362   -0.1139 H   0  0  0  0  0  0  0  0  0  0  0  0
    7.9032   -1.7042   -0.9674 H   0  0  0  0  0  0  0  0  0  0  0  0
    7.8973   -1.7721    0.8131 H   0  0  0  0  0  0  0  0  0  0  0  0
  1 19  1  0  0  0  0
  1 20  1  0  0  0  0
  2  9  1  0  0  0  0
  2 41  1  0  0  0  0
  3 17  2  0  0  0  0
  4 20  2  0  0  0  0
  5 27  1  0  0  0  0
  5 29  1  0  0  0  0
  6 28  1  0  0  0  0
  6 29  1  0  0  0  0
  7 11  1  0  0  0  0
  7 13  1  0  0  0  0
  7 17  1  0  0  0  0
  8 15  1  0  0  0  0
  8 23  2  0  0  0  0
  9 10  1  0  0  0  0
  9 18  1  0  0  0  0
  9 20  1  0  0  0  0
 10 12  2  0  0  0  0
 10 16  1  0  0  0  0
 11 15  1  0  0  0  0
 11 16  2  0  0  0  0
 12 17  1  0  0  0  0
 12 19  1  0  0  0  0
 13 14  1  0  0  0  0
 13 30  1  0  0  0  0
 13 31  1  0  0  0  0
 14 15  2  0  0  0  0
 14 21  1  0  0  0  0
 16 32  1  0  0  0  0
 18 24  1  0  0  0  0
 18 33  1  0  0  0  0
 18 34  1  0  0  0  0
 19 35  1  0  0  0  0
 19 36  1  0  0  0  0
 21 22  2  0  0  0  0
 21 37  1  0  0  0  0
 22 23  1  0  0  0  0
 22 25  1  0  0  0  0
 23 26  1  0  0  0  0
 24 38  1  0  0  0  0
 24 39  1  0  0  0  0
 24 40  1  0  0  0  0
 25 27  2  0  0  0  0
 25 42  1  0  0  0  0
 26 28  2  0  0  0  0
 26 43  1  0  0  0  0
 27 28  1  0  0  0  0
 29 44  1  0  0  0  0
 29 45  1  0  0  0  0
M  END
> <PUBCHEM_COMPOUND_CID>
366358

> <PUBCHEM_CONFORMER_RMSD>
0.6

> <PUBCHEM_CONFORMER_DIVERSEORDER>
1
2

> <PUBCHEM_MMFF94_PARTIAL_CHARGES>
31
1 -0.43
10 -0.14
11 0.08
12 -0.12
13 0.44
14 -0.14
15 0.34
16 -0.15
17 0.62
19 0.42
2 -0.68
20 0.66
21 -0.15
23 0.31
25 -0.15
26 -0.15
27 0.08
28 0.08
29 0.56
3 -0.57
32 0.15
37 0.15
4 -0.57
41 0.4
42 0.15
43 0.15
5 -0.36
6 -0.36
7 -0.47
8 -0.62
9 0.48

> <PUBCHEM_EFFECTIVE_ROTOR_COUNT>
2.4

> <PUBCHEM_PHARMACOPHORE_FEATURES>
14
1 2 acceptor
1 2 donor
1 24 hydrophobe
1 3 acceptor
1 4 acceptor
1 5 acceptor
1 6 acceptor
1 8 acceptor
5 5 6 27 28 29 rings
5 7 11 13 14 15 rings
6 1 9 10 12 19 20 rings
6 22 23 25 26 27 28 rings
6 7 10 11 12 16 17 rings
6 8 14 15 21 22 23 rings

> <PUBCHEM_HEAVY_ATOM_COUNT>
29

> <PUBCHEM_ATOM_DEF_STEREO_COUNT>
0

> <PUBCHEM_ATOM_UDEF_STEREO_COUNT>
1

> <PUBCHEM_BOND_DEF_STEREO_COUNT>
0

> <PUBCHEM_BOND_UDEF_STEREO_COUNT>
0

> <PUBCHEM_ISOTOPIC_ATOM_COUNT>
0

> <PUBCHEM_COMPONENT_COUNT>
1

> <PUBCHEM_CACTVS_TAUTO_COUNT>
1

> <PUBCHEM_CONFORMER_ID>
0005971600000001

> <PUBCHEM_MMFF94_ENERGY>
84.7211

> <PUBCHEM_FEATURE_SELFOVERLAP>
71.457

> <PUBCHEM_SHAPE_FINGERPRINT>
10 15 18200580481068666808
10391435 84 18337100250697604288
10411042 1 18339080518842843675
10595046 47 18409450276469519132
10622 236 17198523121043290415
11315181 36 17988924466234765729
11524674 6 16487251071378412623
117089 54 18117569641651682627
11963148 33 18412538787452969670
12107183 9 17617093608080403280
12166972 35 17894353293723875036
12236239 1 18273214192559586172
12516196 113 18201716250077294480
12760667 363 18413108372860674651
13288520 33 18413106152325860829
13782708 43 17775281660334277102
13862211 1 18342174483779794142
14211702 104 18341339907489584574
14461889 52 18341040892388209314
14931854 50 18114166550474247295
14950920 106 16773236318027580691
15064986 266 18261117392012606165
15183329 4 17894906321854436354
15196674 1 18411419510057752848
15250474 111 18114734924507335322
15351339 4 17967522467910545371
15361156 5 18187656820219614916
16087824 20 18266176133654882805
17492 89 18121218942397785987
17627616 140 17823129025988524571
17844677 252 18342461443635749320
17857418 61 18412544310231135862
18393751 57 16691577973324785881
18681886 176 18412820296888625352
18927931 339 18412831282971785463
20028762 73 18272086085446268398
21033648 29 17130687427815847920
21130935 74 18131068204361182762
21236236 1 18412545375319910121
21267235 1 18411142441252958917
21623969 137 17561365050606252702
21682296 61 18343025479746398198
221490 88 18337393841286927088
22393880 68 18113888347418395865
23522609 53 18126034687089729648
23559900 14 18410285947723824881
249057 3 18334294228552664661
25025965 108 18128517324094678942
3004659 81 18187361034960350552
329604 57 18408327704887764532
335352 9 18411416181917210181
3383291 50 18261673774507995171
350125 39 18413107260279957356
397830 11 17417511615138616554
4073 2 18187088377435545506
4214541 1 18411700941757898832
439807 62 18260835938009663131
465052 167 18343868835920451822
5104073 3 18343586247998910624
5109719 28 17985827271499058864
54583773 228 18261684753461423692
559249 180 18411698760431067981
5718773 13 18268989963781614079
59682541 35 18343010117929782026
59755656 215 18408604734610799278
636775 8 18336841844518391318
6431902 208 18410012156190282059
7495541 125 17918270974394530376
7970288 3 18122626317076098171
999808 66 18114191860600530547

> <PUBCHEM_SHAPE_MULTIPOLES>
551.63
17.26
3.12
0.81
14.59
0.46
0.08
-11.36
-0.88
-2.51
0.45
-1.04
-0.42
0.53

> <PUBCHEM_SHAPE_SELFOVERLAP>
1271.49

> <PUBCHEM_SHAPE_VOLUME>
282.2

> <PUBCHEM_COORDINATE_TYPE>
2
5
10

$$$$
